Circuit: * F:\Smit SIT\College\Google Classroom\Second year\Sem 4\ACD\project\Project_LTSpice\project.asc

Direct Newton iteration for .op point succeeded.

Date: Sun Aug 11 19:48:37 2019
Total elapsed time: 1.096 seconds.

tnom = 27
temp = 27
method = modified trap
totiter = 7354
traniter = 7346
tranpoints = 2141
accept = 1881
rejected = 260
matrix size = 14
fillins = 0
solver = Normal
Matrix Compiler1: 384 bytes object code size  0.2/0.1/[0.0]
Matrix Compiler2: off  [0.1]/0.2/0.2

